
  EPA STORM WATER MANAGEMENT MODEL - VERSION 5.2 (Build 5.2.4)
  PYSWMM TOOLKIT API - VERSION v1.0 (2023-11-27)
  ------------------------------------------------------------

  
  ****************
  Analysis Options
  ****************
  Flow Units ............... CFS
  Process Models:
    Rainfall/Runoff ........ NO
    RDII ................... NO
    Snowmelt ............... NO
    Groundwater ............ NO
    Flow Routing ........... NO
    Water Quality .......... NO
  Surcharge Method ......... EXTRAN
  Starting Date ............ 09/19/2024 00:00:00
  Ending Date .............. 09/19/2024 06:00:00
  Antecedent Dry Days ...... 0.0
  Report Time Step ......... 00:15:00
  