  Page 1                                    Fri Sep 20 15:56:15 2024

  ******************************************************************
  *                           E P A N E T                          *
  *                   Hydraulic and Water Quality                  *
  *                   Analysis for Pipe Networks                   *
  *                         Version 2.2                            *
  ******************************************************************
  
   
      Input Data File ................... temp.inp
      Number of Junctions................ 427
      Number of Reservoirs............... 11
      Number of Tanks ................... 0
      Number of Pipes ................... 431
      Number of Pumps ................... 0
      Number of Valves .................. 0
      Headloss Formula .................. Hazen-Williams
      Nodal Demand Model ................ DDA
      Hydraulic Timestep ................ 0.02 min
      Hydraulic Accuracy ................ 0.001000
      Status Check Frequency ............ 2
      Maximum Trials Checked ............ 10
      Damping Limit Threshold ........... 0.000000
      Maximum Trials .................... 200
      Quality Analysis .................. None
      Specific Gravity .................. 1.00
      Relative Kinematic Viscosity ...... 1.00
      Relative Chemical Diffusivity ..... 1.00
      Demand Multiplier ................. 1.00
      Total Duration .................... 0.83 min
      Reporting Criteria:
         No Nodes
         No Links
   
  Analysis begun Fri Sep 20 15:56:15 2024

  WARNING: Negative pressures at 0:00:00 hrs.
   
  WARNING: Negative pressures at 0:00:01 hrs.
   
  WARNING: Negative pressures at 0:00:02 hrs.
   
  WARNING: Negative pressures at 0:00:03 hrs.
   
  WARNING: Negative pressures at 0:00:04 hrs.
   
  WARNING: Negative pressures at 0:00:05 hrs.
   
  WARNING: Negative pressures at 0:00:06 hrs.
   
  WARNING: Negative pressures at 0:00:07 hrs.
   
  WARNING: Negative pressures at 0:00:08 hrs.
   
  WARNING: Negative pressures at 0:00:09 hrs.
   
  WARNING: Negative pressures at 0:00:10 hrs.
   
  WARNING: Negative pressures at 0:00:11 hrs.
   
  WARNING: Negative pressures at 0:00:12 hrs.
   
  WARNING: Negative pressures at 0:00:13 hrs.
   
  WARNING: Negative pressures at 0:00:14 hrs.
   
  WARNING: Negative pressures at 0:00:15 hrs.
   
  WARNING: Negative pressures at 0:00:16 hrs.
   
  WARNING: Negative pressures at 0:00:17 hrs.
   
  WARNING: Negative pressures at 0:00:18 hrs.
   
  WARNING: Negative pressures at 0:00:19 hrs.
   
  WARNING: Negative pressures at 0:00:20 hrs.
   
  WARNING: Negative pressures at 0:00:21 hrs.
   
  WARNING: Negative pressures at 0:00:22 hrs.
   
  WARNING: Negative pressures at 0:00:23 hrs.
   
  WARNING: Negative pressures at 0:00:24 hrs.
   
  WARNING: Negative pressures at 0:00:25 hrs.
   
  WARNING: Negative pressures at 0:00:26 hrs.
   
  WARNING: Negative pressures at 0:00:27 hrs.
   
  WARNING: Negative pressures at 0:00:28 hrs.
   
  WARNING: Negative pressures at 0:00:29 hrs.
   
  WARNING: Negative pressures at 0:00:30 hrs.
   
  WARNING: Negative pressures at 0:00:31 hrs.
   
  WARNING: Negative pressures at 0:00:32 hrs.
   
  WARNING: Negative pressures at 0:00:33 hrs.
   
  WARNING: Negative pressures at 0:00:34 hrs.
   
  WARNING: Negative pressures at 0:00:35 hrs.
   
  WARNING: Negative pressures at 0:00:36 hrs.
   
  WARNING: Negative pressures at 0:00:37 hrs.
   
  WARNING: Negative pressures at 0:00:38 hrs.
   
  WARNING: Negative pressures at 0:00:39 hrs.
   
  WARNING: Negative pressures at 0:00:40 hrs.
   
  WARNING: Negative pressures at 0:00:41 hrs.
   
  WARNING: Negative pressures at 0:00:42 hrs.
   
  WARNING: Negative pressures at 0:00:43 hrs.
   
  WARNING: Negative pressures at 0:00:44 hrs.
   
  WARNING: Negative pressures at 0:00:45 hrs.
   
  WARNING: Negative pressures at 0:00:46 hrs.
   
  WARNING: Negative pressures at 0:00:47 hrs.
   
  WARNING: Negative pressures at 0:00:48 hrs.
   
  WARNING: Negative pressures at 0:00:49 hrs.
   
  WARNING: Negative pressures at 0:00:50 hrs.
   
  Analysis ended Fri Sep 20 15:56:15 2024
